testData/tamu2000/pfcases_100_zone3/Equ_tx2000_hr_5358_mod_v23_zone3_pslf.raw
0  100.000 
THIS IS A SYNTHETIC POWER SYSTEM MODEL THAT DOES NOT REPRESE
DATA RESEARCH PROJECT AND CONTAINS NO CEII.
1004,  2,  44.107,  -19.011,  0.000,  0.000,  1,  1.02616,  -39.3354,  'O DONNEL',  230.00,  9
1009,  2,  23.957,  -3.319,  0.000,  0.000,  1,  1.00843,  -37.4470,  'IRAAN 2 ',  13.800,  9
1021,  2,  26.617,  -11.692,  0.000,  0.000,  1,  1.00847,  -37.9642,  'BIG SPRI',  13.800,  9
1023,  2,  28.131,  -4.805,  0.000,  0.000,  1,  1.01000,  -33.2338,  'O DONNEL',  13.800,  9
1026,  2,  24.764,  -9.035,  0.000,  0.000,  1,  1.00466,  -36.6028,  'BIG SPRI',  13.800,  9
1033,  2,  160.348,  -29.516,  0.000,  0.000,  1,  1.00056,  -41.4924,  'MCCAMEY ',  230.00,  9
1035,  2,  38.723,  -11.554,  0.000,  0.000,  1,  1.00299,  -36.8139,  'BIG SPRI',  13.800,  9
1039,  2,  19.823,  -8.565,  0.000,  0.000,  1,  1.00000,  -34.6304,  'FORT STO',  22.000,  9
1042,  2,  39.324,  -5.516,  0.000,  0.000,  1,  1.00000,  -33.9841,  'FORSAN 1',  13.800,  9
1048,  2,  97.538,  -7.355,  0.000,  0.000,  1,  1.00000,  -27.0761,  'MONAHANS',  18.000,  9
1049,  2,  88.211,  3.559,  0.000,  0.000,  1,  1.00000,  -21.4155,  'MONAHANS',  18.000,  9
1053,  2,  53.429,  -14.613,  0.000,  0.000,  1,  1.00613,  -38.0651,  'MONAHANS',  230.00,  9
1057,  2,  54.046,  -15.333,  0.000,  0.000,  1,  1.00624,  -38.0535,  'LENORAH ',  18.000,  9
1066,  2,  39.030,  -7.193,  0.000,  0.000,  1,  1.00000,  -34.1801,  'BIG SPRI',  13.800,  9
1070,  2,  46.497,  -1.340,  0.000,  0.000,  1,  1.04000,  -37.3278,  'IRAAN 1 ',  13.800,  9
1072,  3,  33.774,  -3.153,  0.000,  0.000,  1,  1.01000,  -43.7098,  'ODESSA 1',  18.000,  9
1073,  2,  24.187,  -2.577,  0.000,  0.000,  1,  1.01000,  -41.7254,  'ODESSA 1',  18.000,  9
1074,  2,  25.217,  -1.396,  0.000,  0.000,  1,  1.01000,  -41.9413,  'ODESSA 1',  18.000,  9
1075,  2,  30.414,  -1.720,  0.000,  0.000,  1,  1.01000,  -42.7473,  'ODESSA 1',  18.000,  9
1076,  2,  73.190,  -8.507,  0.000,  0.000,  1,  1.01000,  -44.3722,  'ODESSA 1',  18.000,  9
1077,  2,  25.901,  -1.656,  0.000,  0.000,  1,  1.01000,  -42.0686,  'ODESSA 1',  18.000,  9
1081,  2,  76.931,  -23.402,  0.000,  0.000,  1,  1.01000,  -40.3253,  'ODESSA 1',  230.00,  9
1082,  2,  71.216,  -32.202,  0.000,  0.000,  1,  1.01704,  -37.0329,  'FORT STO',  115.00,  9
1084,  2,  93.115,  -29.538,  0.000,  0.000,  1,  1.03682,  -42.6370,  'BIG SPRI',  115.00,  9
2004,  2,  93.155,  -24.329,  0.000,  0.000,  2,  1.02086,  -57.5929,  'SAVOY 2 ',  13.800,  11
2005,  2,  80.398,  -21.207,  0.000,  0.000,  2,  1.02000,  -57.4301,  'SAVOY 3 ',  13.800,  11
2006,  2,  56.585,  -14.465,  0.000,  0.000,  2,  1.02000,  -56.8119,  'SAVOY 4 ',  13.800,  11
2013,  2,  6.893,  -11.295,  0.000,  0.000,  2,  1.04277,  -39.1449,  'PANHANDL',  18.000,  10
2019,  2,  9.717,  32.259,  0.000,  0.000,  2,  1.04000,  -39.8368,  'PANHANDL',  20.000,  10
2024,  2,  63.922,  -18.735,  0.000,  0.000,  2,  1.02519,  -57.8780,  'PARIS 2 ',  13.800,  11
2042,  2,  8.267,  -1.529,  0.000,  0.000,  2,  1.02876,  -34.8187,  'PANHANDL',  18.000,  10
2057,  3,  183.502,  -80.297,  0.000,  0.000,  2,  0.99000,  -48.9221,  'WICHITA ',  18.000,  11
2059,  2,  4.488,  -0.876,  0.000,  0.000,  2,  1.02729,  -34.5073,  'WHITE DE',  13.800,  10
2062,  2,  71.220,  -26.159,  0.000,  0.000,  2,  1.02000,  -47.6490,  'VERNON 1',  18.000,  10
2071,  2,  40.618,  -11.322,  0.000,  0.000,  2,  1.00000,  -47.6587,  'ARCHER 2',  18.000,  11
2078,  2,  77.629,  -18.087,  0.000,  0.000,  2,  1.02000,  -58.4397,  'MUENSTER',  13.800,  11
2089,  2,  26.345,  -6.875,  0.000,  0.000,  2,  1.00000,  -47.7954,  'ARCHER 1',  24.000,  11
2095,  2,  6.108,  -0.352,  0.000,  0.000,  2,  1.03171,  -37.0211,  'PANHANDL',  13.800,  10
2100,  2,  12.733,  9.973,  0.000,  0.000,  2,  1.02117,  -38.7040,  'RALLS 1 ',  18.000,  10
2103,  2,  135.273,  -26.670,  0.000,  0.000,  2,  1.02429,  -58.4367,  'SHERMAN ',  20.000,  11
2104,  2,  100.458,  -20.160,  0.000,  0.000,  2,  1.02315,  -58.2657,  'SHERMAN ',  20.000,  11
2105,  2,  61.839,  -13.239,  0.000,  0.000,  2,  1.02050,  -57.8426,  'SHERMAN ',  20.000,  11
2115,  2,  42.941,  -13.726,  0.000,  0.000,  2,  1.02223,  -57.3098,  'PARIS 1 ',  13.800,  11
2116,  2,  81.572,  -22.743,  0.000,  0.000,  2,  1.02582,  -57.8728,  'PARIS 1 ',  13.800,  11
2117,  2,  38.037,  -11.757,  0.000,  0.000,  2,  1.02075,  -57.1285,  'PARIS 1 ',  13.800,  11
2118,  2,  36.754,  -11.690,  0.000,  0.000,  2,  1.01983,  -56.9805,  'PARIS 1 ',  13.800,  11
2119,  2,  62.811,  -19.060,  0.000,  0.000,  2,  1.02496,  -57.7406,  'PARIS 1 ',  13.800,  11
2120,  2,  36.839,  -11.702,  0.000,  0.000,  2,  1.02028,  -57.0385,  'PARIS 1 ',  13.800,  11
2123,  2,  34.943,  -11.617,  0.000,  0.000,  2,  1.03729,  -36.5187,  'PANHANDL',  161.00,  10
2127,  2,  234.936,  -184.773,  0.000,  0.000,  2,  1.05253,  -42.1475,  'MIAMI 0 ',  500.00,  10
3017,  2,  33.427,  2.592,  0.000,  0.000,  3,  1.01000,  -41.7808,  'BLACKWEL',  18.000,  27
3020,  2,  129.194,  -7.432,  0.000,  0.000,  3,  1.03000,  -49.4274,  'CHRISTOV',  13.800,  27
3028,  2,  57.459,  3.452,  0.000,  0.000,  3,  1.04000,  -48.4834,  'ABILENE ',  18.000,  27
3034,  2,  22.365,  -0.132,  0.000,  0.000,  3,  1.03000,  -35.1990,  'SNYDER 1',  22.000,  27
3039,  2,  25.377,  -3.509,  0.000,  0.000,  3,  1.04000,  -42.4508,  'ROSCOE 2',  13.800,  27
3045,  2,  10.038,  0.267,  0.000,  0.000,  3,  1.04000,  -41.4900,  'SILVER 4',  13.800,  27
3048,  2,  662.369,  -622.423,  0.000,  0.000,  3,  1.04257,  -52.4563,  'ROSCOE 5',  500.00,  27
3055,  2,  43.692,  1.473,  0.000,  0.000,  3,  1.04000,  -44.4081,  'WINGATE ',  13.800,  27
3056,  2,  29.705,  2.147,  0.000,  0.000,  3,  1.04000,  -43.0998,  'WINGATE ',  13.800,  27
3057,  2,  30.324,  1.878,  0.000,  0.000,  3,  1.04000,  -43.1822,  'WINGATE ',  13.800,  27
3060,  2,  16.626,  0.414,  0.000,  0.000,  3,  1.04000,  -40.3869,  'STERLING',  18.000,  27
3061,  2,  18.895,  0.569,  0.000,  0.000,  3,  1.04000,  -41.4871,  'STERLING',  18.000,  27
3062,  2,  26.947,  -1.942,  0.000,  0.000,  3,  1.04000,  -42.8477,  'STERLING',  18.000,  27
3063,  2,  22.899,  0.534,  0.000,  0.000,  3,  1.04000,  -42.2615,  'STERLING',  18.000,  27
3065,  2,  3.131,  -5.658,  0.000,  0.000,  3,  1.01284,  -39.4655,  'ROSCOE 4',  18.000,  27
3068,  2,  23.639,  0.581,  0.000,  0.000,  3,  1.04000,  -41.4262,  'TRENT 1 ',  20.000,  27
3071,  2,  17.707,  -3.456,  0.000,  0.000,  3,  1.00709,  -41.5400,  'NOLAN 1 ',  24.000,  27
3074,  2,  55.852,  -9.697,  0.000,  0.000,  3,  1.00000,  -79.9217,  'BRACKETT',  13.800,  28
3081,  2,  15.920,  -2.131,  0.000,  0.000,  3,  1.04000,  -40.7288,  'HERMLEIG',  20.000,  27
3084,  2,  16.619,  -8.370,  0.000,  0.000,  3,  1.00000,  -41.1969,  'MERKEL 1',  13.800,  27
3087,  2,  7.992,  -1.105,  0.000,  0.000,  3,  1.00644,  -37.0832,  'LORAINE ',  13.200,  27
3092,  2,  33.311,  7.684,  0.000,  0.000,  3,  1.04000,  -45.5074,  'ABILENE ',  13.800,  27
3095,  2,  19.292,  4.669,  0.000,  0.000,  3,  1.04000,  -41.5700,  'MERKEL 2',  18.000,  27
3098,  2,  10.905,  -1.319,  0.000,  0.000,  3,  1.04000,  -35.3351,  'FLUVANNA',  13.800,  27
3106,  3,  10.304,  -7.468,  0.000,  0.000,  3,  1.00000,  -66.6585,  'BUCHANAN',  13.200,  28
3110,  2,  11.459,  -1.795,  0.000,  0.000,  3,  1.04000,  -36.2095,  'FLUVANNA',  13.800,  27
3118,  2,  24.357,  -5.118,  0.000,  0.000,  3,  1.00137,  -36.8598,  'SYNDER 2',  13.800,  27
3122,  2,  14.829,  -1.817,  0.000,  0.000,  3,  1.00000,  -35.6559,  'ROSCOE 1',  18.000,  27
3127,  2,  7.339,  -1.854,  0.000,  0.000,  3,  1.01912,  -40.6358,  'SWEETWAT',  115.00,  27
3129,  2,  18.212,  -29.475,  0.000,  0.000,  3,  1.02505,  -40.5399,  'ROSCOE 3',  115.00,  27
3131,  2,  125.398,  -17.721,  0.000,  0.000,  3,  1.02000,  -44.4471,  'TUSOCOLA',  115.00,  27
3137,  2,  102.772,  -16.150,  0.000,  0.000,  3,  1.03000,  -44.8090,  'SWEETWAT',  115.00,  27
3141,  2,  36.863,  -8.865,  0.000,  0.000,  3,  1.02112,  -41.5987,  'SWEETWAT',  115.00,  27
4010,  2,  46.205,  -5.940,  0.000,  0.000,  4,  1.03000,  -83.3135,  'SARITA 3',  20.000,  21
4026,  2,  186.111,  -14.593,  0.000,  0.000,  4,  1.03000,  -67.8069,  'CHRISTIN',  13.800,  20
4030,  3,  184.460,  -24.715,  0.000,  0.000,  4,  1.01000,  -62.1664,  'FANNIN 2',  13.800,  21
4050,  2,  21.790,  -8.693,  0.000,  0.000,  4,  1.01018,  -94.6219,  'SEBASTIA',  13.800,  19
4058,  2,  27.518,  2.539,  0.000,  0.000,  4,  1.03000,  -74.2750,  'GREGORY ',  13.800,  21
4059,  2,  32.249,  2.378,  0.000,  0.000,  4,  1.03000,  -74.4873,  'GREGORY ',  13.800,  21
4060,  2,  23.023,  1.853,  0.000,  0.000,  4,  1.03000,  -73.6702,  'GREGORY ',  13.800,  21
4061,  2,  28.247,  2.596,  0.000,  0.000,  4,  1.03000,  -74.0315,  'GREGORY ',  13.800,  21
4062,  2,  27.058,  1.788,  0.000,  0.000,  4,  1.03000,  -73.6304,  'GREGORY ',  13.800,  21
4063,  2,  27.785,  2.914,  0.000,  0.000,  4,  1.03000,  -74.0025,  'GREGORY ',  13.800,  21
4082,  2,  30.843,  1.000,  0.000,  0.000,  4,  1.04000,  -77.2464,  'CORPUS C',  13.800,  21
4083,  2,  32.811,  0.977,  0.000,  0.000,  4,  1.04000,  -77.5462,  'CORPUS C',  13.800,  21
4084,  2,  39.824,  -1.862,  0.000,  0.000,  4,  1.04000,  -79.1378,  'CORPUS C',  13.800,  21
4085,  2,  51.323,  -3.062,  0.000,  0.000,  4,  1.04000,  -78.6824,  'CORPUS C',  13.800,  21
4105,  2,  103.083,  4.930,  0.000,  0.000,  4,  1.01000,  -76.8637,  'TAFT 2 1',  18.000,  21
4115,  2,  116.930,  -1.405,  0.000,  0.000,  4,  1.04000,  -83.4842,  'LAREDO 1',  13.800,  20
4116,  2,  111.246,  -2.336,  0.000,  0.000,  4,  1.04000,  -83.4310,  'LAREDO 1',  13.800,  20
4142,  2,  115.146,  -9.232,  0.000,  0.000,  4,  1.04000,  -83.0547,  'SARITA 1',  13.800,  21
4153,  2,  290.389,  -20.113,  0.000,  0.000,  4,  1.04000,  -85.0678,  'ARMSTRON',  18.000,  21
4160,  2,  97.826,  13.069,  0.000,  0.000,  4,  1.03000,  -75.7122,  'CORPUS C',  13.800,  21
4161,  2,  52.339,  7.141,  0.000,  0.000,  4,  1.03000,  -73.5253,  'CORPUS C',  13.800,  21
4162,  2,  52.925,  6.091,  0.000,  0.000,  4,  1.03000,  -73.5676,  'CORPUS C',  13.800,  21
4166,  2,  35.955,  -5.490,  0.000,  0.000,  4,  1.01368,  -82.5863,  'SARITA 2',  13.800,  21
4177,  2,  70.627,  -4.504,  0.000,  0.000,  4,  1.04000,  -81.9452,  'BRUNI 1 ',  13.800,  20
4181,  2,  175.262,  -13.876,  0.000,  0.000,  4,  1.02613,  -75.0691,  'TAFT 1 0',  230.00,  21
4183,  2,  344.204,  -30.194,  0.000,  0.000,  4,  1.02462,  -87.0162,  'SAN PERL',  230.00,  19
4192,  2,  788.681,  24.776,  0.000,  0.000,  4,  1.02000,  -89.2471,  'BROWNSVI',  230.00,  19
4194,  2,  722.100,  -105.879,  0.000,  0.000,  4,  1.02000,  -96.8924,  'SEBASTIA',  115.00,  19
4195,  2,  526.722,  -154.446,  0.000,  0.000,  4,  1.02737,  -77.7147,  'OILTON 0',  500.00,  20
5020,  2,  65.959,  -19.779,  0.000,  0.000,  5,  1.02195,  -52.8903,  'JACKSBOR',  13.800,  12
5037,  2,  228.158,  -8.432,  0.000,  0.000,  5,  1.02224,  -58.3266,  'DALLAS 1',  13.200,  16
5038,  2,  221.401,  -7.654,  0.000,  0.000,  5,  1.02205,  -58.2793,  'DALLAS 1',  13.200,  16
5039,  2,  546.119,  -30.495,  0.000,  0.000,  5,  1.02459,  -59.1346,  'DALLAS 1',  13.200,  16
5040,  2,  171.130,  -6.627,  0.000,  0.000,  5,  1.02095,  -57.8016,  'DALLAS 1',  13.200,  16
5041,  2,  244.929,  -10.816,  0.000,  0.000,  5,  1.02266,  -58.4158,  'DALLAS 1',  13.200,  16
5042,  2,  206.195,  -6.763,  0.000,  0.000,  5,  1.02169,  -58.1696,  'DALLAS 1',  13.200,  16
5057,  2,  126.885,  -32.994,  0.000,  0.000,  5,  1.02155,  -52.4335,  'GRAHAM 2',  13.800,  12
5058,  2,  95.140,  -22.935,  0.000,  0.000,  5,  1.01914,  -51.6711,  'GRAHAM 3',  13.800,  12
5067,  2,  355.527,  -20.140,  0.000,  0.000,  5,  1.03000,  -57.4412,  'ARLINGTO',  13.800,  17
5068,  2,  339.025,  -19.889,  0.000,  0.000,  5,  1.03000,  -57.3491,  'ARLINGTO',  13.800,  17
5069,  2,  320.719,  -18.408,  0.000,  0.000,  5,  1.03000,  -57.2262,  'ARLINGTO',  13.800,  17
5166,  2,  155.513,  -19.309,  0.000,  0.000,  5,  1.04000,  -58.8780,  'DENTON 1',  13.800,  17
5198,  2,  146.080,  -33.877,  0.000,  0.000,  5,  1.02365,  -54.5519,  'BRYSON 1',  18.000,  12
5206,  2,  108.891,  -17.219,  0.000,  0.000,  5,  1.02136,  -54.8706,  'POOLVILL',  13.800,  12
5207,  2,  184.414,  -31.734,  0.000,  0.000,  5,  1.02389,  -55.5981,  'POOLVILL',  13.800,  12
5208,  2,  148.934,  -25.095,  0.000,  0.000,  5,  1.02312,  -55.3806,  'POOLVILL',  13.800,  12
5238,  2,  150.816,  -86.221,  0.000,  0.000,  5,  1.02416,  -52.0983,  'OLNEY 1 ',  18.000,  12
5243,  2,  147.197,  -30.841,  0.000,  0.000,  5,  1.03099,  -59.9480,  'GOLDTHWA',  13.800,  18
5262,  2,  329.728,  -10.012,  0.000,  0.000,  5,  1.01459,  -50.9362,  'GLEN ROS',  13.800,  18
5263,  2,  447.343,  -18.057,  0.000,  0.000,  5,  1.01729,  -52.1634,  'GLEN ROS',  13.800,  18
5281,  2,  145.589,  -10.984,  0.000,  0.000,  5,  1.01976,  -61.6180,  'TEMPLE 1',  13.800,  13
5282,  2,  172.623,  -13.329,  0.000,  0.000,  5,  1.02069,  -61.7529,  'TEMPLE 1',  13.800,  13
5283,  2,  228.324,  -18.492,  0.000,  0.000,  5,  1.02192,  -61.9254,  'TEMPLE 1',  13.800,  13
5298,  2,  301.025,  -30.458,  0.000,  0.000,  5,  1.03924,  -59.9077,  'MCKINNEY',  13.800,  16
5299,  2,  121.627,  -7.313,  0.000,  0.000,  5,  1.04000,  -59.6975,  'MCKINNEY',  13.800,  16
5300,  2,  149.510,  -10.035,  0.000,  0.000,  5,  1.04000,  -59.7673,  'MCKINNEY',  13.800,  16
5302,  2,  172.218,  -10.601,  0.000,  0.000,  5,  1.04000,  -58.8005,  'MCKINNEY',  13.800,  16
5303,  2,  245.229,  -20.262,  0.000,  0.000,  5,  1.04000,  -59.1315,  'MCKINNEY',  13.800,  16
5319,  2,  170.416,  -13.850,  0.000,  0.000,  5,  1.01685,  -56.0887,  'GRANBURY',  13.200,  18
5320,  2,  155.380,  -14.063,  0.000,  0.000,  5,  1.01642,  -55.9983,  'GRANBURY',  13.200,  18
5321,  2,  174.969,  -13.662,  0.000,  0.000,  5,  1.01711,  -56.1242,  'GRANBURY',  13.200,  18
5324,  2,  189.718,  -2.548,  0.000,  0.000,  5,  1.04000,  -57.7178,  'DALLAS 2',  13.800,  17
5325,  2,  189.689,  -1.157,  0.000,  0.000,  5,  1.04000,  -57.7134,  'DALLAS 2',  13.800,  17
5326,  2,  573.499,  -41.785,  0.000,  0.000,  5,  1.04000,  -59.2024,  'DALLAS 2',  13.800,  17
5360,  3,  169.807,  -16.031,  0.000,  0.000,  5,  1.01000,  -58.9652,  'RIESEL 1',  13.800,  13
5364,  2,  193.645,  -25.978,  0.000,  0.000,  5,  1.02359,  -56.0653,  'BRIDGEPO',  13.800,  12
5365,  2,  94.053,  -10.770,  0.000,  0.000,  5,  1.02113,  -55.3683,  'BRIDGEPO',  13.800,  12
5366,  2,  89.664,  -10.745,  0.000,  0.000,  5,  1.02056,  -55.1824,  'BRIDGEPO',  13.800,  12
5367,  2,  90.910,  -10.748,  0.000,  0.000,  5,  1.02065,  -55.2281,  'BRIDGEPO',  13.800,  12
5368,  2,  130.632,  -17.202,  0.000,  0.000,  5,  1.02243,  -55.7248,  'BRIDGEPO',  13.800,  12
5369,  2,  85.715,  -10.276,  0.000,  0.000,  5,  1.02028,  -55.1016,  'BRIDGEPO',  13.800,  12
5382,  2,  184.735,  1.219,  0.000,  0.000,  5,  1.04000,  -58.9380,  'ENNIS 2 ',  13.800,  14
5383,  2,  160.872,  2.787,  0.000,  0.000,  5,  1.04000,  -58.7767,  'ENNIS 3 ',  13.800,  14
5399,  2,  105.600,  -36.905,  0.000,  0.000,  5,  1.04000,  -50.9749,  'ALBANY 1',  13.800,  15
5415,  2,  70.743,  -15.015,  0.000,  0.000,  5,  1.02580,  -54.9784,  'PALO PIN',  13.800,  12
5416,  2,  70.027,  -14.660,  0.000,  0.000,  5,  1.02572,  -54.9719,  'PALO PIN',  13.800,  12
5417,  2,  77.465,  -16.411,  0.000,  0.000,  5,  1.02620,  -55.0487,  'PALO PIN',  13.800,  12
5418,  2,  79.679,  -17.891,  0.000,  0.000,  5,  1.02654,  -55.0791,  'PALO PIN',  13.800,  12
5419,  2,  132.663,  -31.841,  0.000,  0.000,  5,  1.02793,  -55.3011,  'PALO PIN',  13.800,  12
5444,  2,  1246.501,  -168.983,  0.000,  0.000,  5,  1.02147,  -58.5132,  'MIDLOTHI',  500.00,  17
6006,  2,  69.519,  -7.127,  0.000,  0.000,  6,  1.04000,  -60.9834,  'BASTROP ',  13.800,  25
6007,  2,  109.355,  -11.242,  0.000,  0.000,  6,  1.04000,  -60.4932,  'BASTROP ',  13.800,  25
6008,  2,  56.951,  -4.161,  0.000,  0.000,  6,  1.04000,  -61.1116,  'BASTROP ',  13.800,  25
6009,  2,  37.353,  -1.103,  0.000,  0.000,  6,  1.04000,  -60.3209,  'BASTROP ',  13.800,  25
6010,  2,  50.402,  -3.771,  0.000,  0.000,  6,  1.04000,  -60.7697,  'BASTROP ',  13.800,  25
6062,  1,  272.823,  -9.859,  0.000,  0.000,  6,  1.02568,  -64.2496,  'BRENHAM ',  500.00,  25
6069,  2,  146.397,  -14.719,  0.000,  0.000,  6,  1.03000,  -63.5727,  'MARION 1',  18.000,  22
6070,  2,  59.814,  -5.345,  0.000,  0.000,  6,  1.03000,  -63.0656,  'MARION 1',  18.000,  22
6071,  2,  186.956,  -18.102,  0.000,  0.000,  6,  1.03000,  -63.6469,  'MARION 1',  18.000,  22
6072,  2,  72.932,  -5.969,  0.000,  0.000,  6,  1.03000,  -63.2201,  'MARION 1',  18.000,  22
6073,  2,  115.568,  -10.798,  0.000,  0.000,  6,  1.03000,  -63.4553,  'MARION 1',  18.000,  22
6074,  2,  116.476,  -11.639,  0.000,  0.000,  6,  1.03000,  -63.4588,  'MARION 1',  18.000,  22
6078,  2,  32.758,  -21.503,  0.000,  0.000,  6,  1.01461,  -61.1154,  'LA GRANG',  22.000,  25
6079,  2,  65.419,  -41.431,  0.000,  0.000,  6,  1.01886,  -61.7008,  'LA GRANG',  22.000,  25
6080,  2,  49.031,  -31.278,  0.000,  0.000,  6,  1.01747,  -61.5163,  'LA GRANG',  22.000,  25
6106,  2,  66.598,  -17.130,  0.000,  0.000,  6,  1.03151,  -62.3048,  'WINCHEST',  13.800,  25
6110,  2,  169.957,  -13.941,  0.000,  0.000,  6,  1.04000,  -61.1485,  'ROCKDALE',  13.800,  25
6111,  2,  173.616,  -14.483,  0.000,  0.000,  6,  1.04000,  -61.0371,  'ROCKDALE',  13.800,  25
6145,  2,  132.239,  0.423,  0.000,  0.000,  6,  1.03000,  -60.6588,  'SAN ANTO',  13.800,  22
6146,  2,  137.011,  0.359,  0.000,  0.000,  6,  1.03000,  -60.7733,  'SAN ANTO',  13.800,  22
6147,  3,  155.127,  -1.808,  0.000,  0.000,  6,  1.03000,  -61.7334,  'SAN ANTO',  13.800,  22
6148,  2,  248.973,  -7.392,  0.000,  0.000,  6,  1.03000,  -62.6884,  'SAN ANTO',  13.800,  22
6149,  2,  480.093,  -16.662,  0.000,  0.000,  6,  1.03000,  -63.2030,  'SAN ANTO',  13.800,  22
6164,  2,  94.054,  -10.764,  0.000,  0.000,  6,  1.03000,  -61.7799,  'SEGUIN 1',  13.800,  22
6165,  2,  90.635,  -9.856,  0.000,  0.000,  6,  1.03000,  -61.6405,  'SEGUIN 1',  13.800,  22
6166,  2,  191.853,  -25.052,  0.000,  0.000,  6,  1.03000,  -62.4252,  'SEGUIN 1',  13.800,  22
6167,  2,  106.698,  -12.569,  0.000,  0.000,  6,  1.03000,  -61.9307,  'SEGUIN 1',  13.800,  22
6188,  1,  197.551,  -15.083,  0.000,  0.000,  6,  1.00898,  -64.0297,  'COLUMBUS',  230.00,  25
6195,  1,  47.731,  2.508,  0.000,  0.000,  6,  0.99128,  -70.0693,  'INDUSTRY',  115.00,  25
6243,  2,  76.825,  -9.856,  0.000,  0.000,  6,  1.04000,  -62.4992,  'ELMENDOR',  13.800,  22
6244,  2,  93.445,  -11.900,  0.000,  0.000,  6,  1.04000,  -61.7233,  'ELMENDOR',  13.800,  22
6245,  2,  109.070,  -15.177,  0.000,  0.000,  6,  1.04000,  -62.0133,  'ELMENDOR',  13.800,  22
6246,  2,  211.168,  -33.573,  0.000,  0.000,  6,  1.04000,  -62.7803,  'ELMENDOR',  13.800,  22
6247,  2,  172.179,  -28.488,  0.000,  0.000,  6,  1.04000,  -63.1015,  'ELMENDOR',  13.800,  22
6248,  2,  84.754,  -11.511,  0.000,  0.000,  6,  1.04000,  -62.6014,  'ELMENDOR',  13.800,  22
6249,  2,  60.957,  -6.721,  0.000,  0.000,  6,  1.04000,  -62.1608,  'ELMENDOR',  13.800,  22
6257,  2,  101.957,  0.495,  0.000,  0.000,  6,  1.03340,  -62.9388,  'AUSTIN 2',  13.800,  23
...
 0 /End of Bus data, Begin Generator data
1004,  '1',  80.817,  -30.380,  44.940,  -30.380,  1.01000,  0,  253.200,  0.00000,  1.00000,  0.00000,  0.00000,  1.00000,  1,  100.0,  211.000,  63.300
1009,  '1',  31.596,  -11.880,  17.570,  -11.880,  1.00000,  0,  99.000,  0.00000,  1.00000,  0.00000,  0.00000,  1.00000,  1,  100.0,  82.500,  24.750
1021,  '1',  76.415,  -28.730,  42.490,  -28.730,  1.00000,  0,  239.400,  0.00000,  1.00000,  0.00000,  0.00000,  1.00000,  1,  100.0,  199.500,  59.850
1023,  '1',  68.943,  -13.658,  38.340,  -25.920,  1.01000,  0,  216.000,  0.00000,  1.00000,  0.00000,  0.00000,  1.00000,  1,  100.0,  180.000,  54.000
1026,  '1',  47.571,  -17.880,  26.450,  -17.880,  1.00000,  0,  149.040,  0.00000,  1.00000,  0.00000,  0.00000,  1.00000,  1,  100.0,  124.200,  37.260
1033,  '1',  106.479,  -40.030,  59.210,  -40.030,  1.00000,  0,  333.600,  0.00000,  1.00000,  0.00000,  0.00000,  1.00000,  1,  100.0,  278.000,  83.400
1035,  '1',  34.472,  -12.960,  19.170,  -12.960,  1.00000,  0,  108.000,  0.00000,  1.00000,  0.00000,  0.00000,  1.00000,  1,  100.0,  90.000,  27.000
1039,  '1',  56.498,  -20.364,  31.420,  -21.240,  1.00000,  0,  177.000,  0.00000,  1.00000,  0.00000,  0.00000,  1.00000,  1,  100.0,  147.500,  44.250
1042,  '1',  62.253,  -9.957,  25.960,  -17.550,  1.00000,  0,  146.280,  0.00000,  1.00000,  0.00000,  0.00000,  1.00000,  1,  100.0,  121.900,  36.570
1048,  '1',  188.620,  -4.551,  165.530,  -36.100,  1.00000,  0,  390.240,  0.00000,  0.10170,  0.00000,  0.00000,  1.00000,  1,  100.0,  325.200,  97.560
1049,  '1',  188.620,  12.927,  165.530,  -36.100,  1.00000,  0,  390.240,  0.00000,  0.13490,  0.00000,  0.00000,  1.00000,  1,  100.0,  325.200,  97.560
1053,  '1',  53.640,  -19.850,  91.010,  -19.850,  1.00000,  0,  214.560,  0.00000,  0.16870,  0.00000,  0.00000,  1.00000,  1,  100.0,  178.800,  53.640
1057,  '1',  61.283,  -17.280,  25.560,  -17.280,  1.00000,  0,  144.000,  0.00000,  1.00000,  0.00000,  0.00000,  1.00000,  1,  100.0,  120.000,  36.000
1066,  '1',  54.583,  -10.559,  30.350,  -20.520,  1.00000,  0,  171.000,  0.00000,  1.00000,  0.00000,  0.00000,  1.00000,  1,  100.0,  142.500,  42.750
1070,  '1',  61.477,  21.938,  34.190,  -23.110,  1.04000,  0,  192.600,  0.00000,  1.00000,  0.00000,  0.00000,  1.00000,  1,  100.0,  160.500,  48.150
1072,  '1',  46.824,  -7.795,  97.800,  -21.330,  1.01000,  0,  230.560,  0.00000,  0.30820,  0.00000,  0.00000,  1.00000,  1,  100.0,  192.130,  57.640
1073,  '1',  57.640,  -7.435,  97.800,  -21.330,  1.01000,  0,  230.560,  0.00000,  0.19480,  0.00000,  0.00000,  1.00000,  1,  100.0,  192.130,  57.640
1074,  '1',  57.640,  -4.630,  97.800,  -21.330,  1.01000,  0,  230.560,  0.00000,  0.20960,  0.00000,  0.00000,  1.00000,  1,  100.0,  192.130,  57.640
1075,  '1',  57.640,  -5.532,  97.800,  -21.330,  1.01000,  0,  230.560,  0.00000,  0.12370,  0.00000,  0.00000,  1.00000,  1,  100.0,  192.130,  57.640
1076,  '1',  57.640,  -10.938,  97.800,  -21.330,  1.01000,  0,  230.560,  0.00000,  0.10660,  0.00000,  0.00000,  1.00000,  1,  100.0,  192.130,  57.640
1077,  '1',  57.640,  -5.233,  97.800,  -21.330,  1.01000,  0,  230.560,  0.00000,  0.15380,  0.00000,  0.00000,  1.00000,  1,  100.0,  192.130,  57.640
1081,  '1',  166.170,  0.003,  145.830,  -31.800,  1.01000,  0,  343.800,  0.00000,  0.14960,  0.00000,  0.00000,  1.00000,  1,  100.0,  286.500,  85.950
1082,  '1',  57.453,  -21.600,  31.950,  -21.600,  1.00000,  0,  180.000,  0.00000,  1.00000,  0.00000,  0.00000,  1.00000,  1,  100.0,  150.000,  45.000
1084,  '1',  44.236,  24.600,  24.600,  -16.630,  1.04000,  0,  138.600,  0.00000,  1.00000,  0.00000,  0.00000,  1.00000,  1,  100.0,  115.500,  34.650
2004,  '1',  117.540,  -43.490,  199.430,  -43.490,  1.02000,  0,  470.160,  0.00000,  0.10640,  0.00000,  0.00000,  1.00000,  1,  100.0,  391.800,  117.540
2005,  '1',  117.540,  -42.705,  199.430,  -43.490,  1.02000,  0,  470.160,  0.00000,  0.22750,  0.00000,  0.00000,  1.00000,  1,  100.0,  391.800,  117.540
2006,  '1',  117.540,  -26.401,  199.430,  -43.490,  1.02000,  0,  470.160,  0.00000,  0.20040,  0.00000,  0.00000,  1.00000,  1,  100.0,  391.800,  117.540
2013,  '1',  104.677,  -28.890,  42.730,  -28.890,  1.00000,  0,  240.720,  0.00000,  1.00000,  0.00000,  0.00000,  1.00000,  1,  100.0,  200.600,  60.180
2019,  '1',  151.542,  -9.043,  46.430,  -31.390,  1.04000,  0,  261.600,  0.00000,  1.00000,  0.00000,  0.00000,  1.00000,  1,  100.0,  218.000,  65.400
2024,  '1',  50.000,  -18.500,  84.830,  -18.500,  1.02000,  0,  200.000,  0.00000,  0.15080,  0.00000,  0.00000,  1.00000,  1,  100.0,  166.670,  50.000
2042,  '1',  52.702,  -11.460,  16.950,  -11.460,  1.01000,  0,  95.520,  0.00000,  1.00000,  0.00000,  0.00000,  1.00000,  1,  100.0,  79.600,  23.880
2057,  '1',  281.590,  -170.421,  335.520,  -87.840,  0.99000,  0,  864.000,  0.00000,  0.17700,  0.00000,  0.00000,  1.00000,  1,  100.0,  720.000,  216.000
2059,  '1',  41.709,  -11.520,  17.040,  -11.520,  1.00000,  0,  96.000,  0.00000,  1.00000,  0.00000,  0.00000,  1.00000,  1,  100.0,  80.000,  24.000
2062,  '1',  63.313,  -17.691,  28.840,  -19.500,  1.02000,  0,  162.480,  0.00000,  1.00000,  0.00000,  0.00000,  1.00000,  1,  100.0,  135.400,  40.620
2071,  '1',  73.735,  -19.761,  31.950,  -21.600,  1.00000,  0,  180.000,  0.00000,  1.00000,  0.00000,  0.00000,  1.00000,  1,  100.0,  150.000,  45.000
2078,  '1',  55.304,  -11.412,  23.960,  -16.200,  1.02000,  0,  135.000,  0.00000,  1.00000,  0.00000,  0.00000,  1.00000,  1,  100.0,  112.500,  33.750
2089,  '1',  33.230,  -8.251,  14.400,  -9.730,  1.00000,  0,  81.120,  0.00000,  1.00000,  0.00000,  0.00000,  1.00000,  1,  100.0,  67.600,  20.280
2095,  '1',  51.652,  -11.450,  16.930,  -11.450,  1.00000,  0,  95.400,  0.00000,  1.00000,  0.00000,  0.00000,  1.00000,  1,  100.0,  79.500,  23.850
2100,  '1',  61.501,  -21.600,  31.950,  -21.600,  1.02000,  0,  180.000,  0.00000,  1.00000,  0.00000,  0.00000,  1.00000,  1,  100.0,  150.000,  45.000
2103,  '1',  80.320,  -29.720,  136.280,  -29.720,  1.00000,  0,  321.280,  0.00000,  0.33430,  0.00000,  0.00000,  1.00000,  1,  100.0,  267.730,  80.320
2104,  '1',  80.320,  -29.720,  136.280,  -29.720,  1.00000,  0,  321.280,  0.00000,  0.31470,  0.00000,  0.00000,  1.00000,  1,  100.0,  267.730,  80.320
2105,  '1',  80.320,  -29.720,  136.280,  -29.720,  1.00000,  0,  321.280,  0.00000,  0.14160,  0.00000,  0.00000,  1.00000,  1,  100.0,  267.730,  80.320
2115,  '1',  55.410,  -20.500,  94.020,  -20.500,  1.00000,  0,  221.660,  0.00000,  0.14250,  0.00000,  0.00000,  1.00000,  1,  100.0,  184.720,  55.410
2116,  '1',  55.410,  -20.500,  94.020,  -20.500,  1.00000,  0,  221.660,  0.00000,  0.18690,  0.00000,  0.00000,  1.00000,  1,  100.0,  184.720,  55.410
2117,  '1',  55.410,  -20.500,  94.020,  -20.500,  1.00000,  0,  221.660,  0.00000,  0.32540,  0.00000,  0.00000,  1.00000,  1,  100.0,  184.720,  55.410
2118,  '1',  55.410,  -20.500,  94.020,  -20.500,  1.00000,  0,  221.660,  0.00000,  0.10610,  0.00000,  0.00000,  1.00000,  1,  100.0,  184.720,  55.410
2119,  '1',  55.410,  -20.500,  94.020,  -20.500,  1.00000,  0,  221.660,  0.00000,  0.13600,  0.00000,  0.00000,  1.00000,  1,  100.0,  184.720,  55.410
2120,  '1',  55.410,  -20.500,  94.020,  -20.500,  1.01000,  0,  221.660,  0.00000,  0.20680,  0.00000,  0.00000,  1.00000,  1,  100.0,  184.720,  55.410
2123,  '1',  120.304,  -26.160,  38.700,  -26.160,  1.00000,  0,  218.040,  0.00000,  1.00000,  0.00000,  0.00000,  1.00000,  1,  100.0,  181.700,  54.510
2127,  '1',  163.042,  -41.560,  61.470,  -41.560,  1.04000,  0,  346.320,  0.00000,  1.00000,  0.00000,  0.00000,  1.00000,  1,  100.0,  288.600,  86.580
3017,  '1',  64.924,  -11.530,  36.100,  -24.410,  1.01000,  0,  203.400,  0.00000,  1.00000,  0.00000,  0.00000,  1.00000,  1,  100.0,  169.500,  50.850
3020,  '1',  57.453,  0.958,  31.950,  -21.600,  1.03000,  0,  180.000,  0.00000,  1.00000,  0.00000,  0.00000,  1.00000,  1,  100.0,  150.000,  45.000
3028,  '1',  98.313,  10.586,  42.600,  -28.800,  1.04000,  0,  240.000,  0.00000,  1.00000,  0.00000,  0.00000,  1.00000,  1,  100.0,  200.000,  60.000
3034,  '1',  49.981,  4.316,  27.800,  -18.790,  1.03000,  0,  156.600,  0.00000,  1.00000,  0.00000,  0.00000,  1.00000,  1,  100.0,  130.500,  39.150
3039,  '1',  80.051,  16.922,  44.520,  -30.100,  1.04000,  0,  250.800,  0.00000,  1.00000,  0.00000,  0.00000,  1.00000,  1,  100.0,  209.000,  62.700
3045,  '1',  134.100,  10.861,  227.520,  -49.620,  1.04000,  0,  536.400,  0.00000,  0.14470,  0.00000,  0.00000,  1.00000,  1,  100.0,  447.000,  134.100
3048,  '1',  92.308,  -34.700,  51.330,  -34.700,  1.04000,  0,  289.200,  0.00000,  1.00000,  0.00000,  0.00000,  1.00000,  1,  100.0,  241.000,  72.300
3055,  '1',  93.906,  14.891,  52.220,  -35.300,  1.04000,  0,  294.200,  0.00000,  1.00000,  0.00000,  0.00000,  1.00000,  1,  100.0,  245.170,  73.550
3056,  '1',  93.906,  8.948,  52.220,  -35.300,  1.04000,  0,  294.200,  0.00000,  1.00000,  0.00000,  0.00000,  1.00000,  1,  100.0,  245.170,  73.550
3057,  '1',  93.906,  8.155,  52.220,  -35.300,  1.04000,  0,  294.200,  0.00000,  1.00000,  0.00000,  0.00000,  1.00000,  1,  100.0,  245.170,  73.550
3060,  '1',  63.438,  4.401,  35.280,  -23.850,  1.04000,  0,  198.750,  0.00000,  1.00000,  0.00000,  0.00000,  1.00000,  1,  100.0,  165.630,  49.690
3061,  '1',  63.438,  5.273,  35.280,  -23.850,  1.04000,  0,  198.750,  0.00000,  1.00000,  0.00000,  0.00000,  1.00000,  1,  100.0,  165.630,  49.690
3062,  '1',  63.438,  8.458,  35.280,  -23.850,  1.04000,  0,  198.750,  0.00000,  1.00000,  0.00000,  0.00000,  1.00000,  1,  100.0,  165.630,  49.690
3063,  '1',  63.438,  6.020,  35.280,  -23.850,  1.04000,  0,  198.750,  0.00000,  1.00000,  0.00000,  0.00000,  1.00000,  1,  100.0,  165.630,  49.690
3065,  '1',  30.830,  -11.590,  17.150,  -11.590,  1.00000,  0,  96.600,  0.00000,  1.00000,  0.00000,  0.00000,  1.00000,  1,  100.0,  80.500,  24.150
3068,  '1',  57.453,  20.942,  31.950,  -21.600,  1.04000,  0,  180.000,  0.00000,  1.00000,  0.00000,  0.00000,  1.00000,  1,  100.0,  150.000,  45.000
3071,  '1',  65.190,  -24.510,  36.250,  -24.510,  1.00000,  0,  204.240,  0.00000,  1.00000,  0.00000,  0.00000,  1.00000,  1,  100.0,  170.200,  51.060
3074,  '1',  38.225,  -8.134,  21.260,  -14.370,  1.00000,  0,  119.760,  0.00000,  1.00000,  0.00000,  0.00000,  1.00000,  1,  100.0,  99.800,  29.940
3081,  '1',  95.372,  10.783,  53.040,  -35.860,  1.04000,  0,  298.800,  0.00000,  1.00000,  0.00000,  0.00000,  1.00000,  1,  100.0,  249.000,  74.700
3084,  '1',  89.049,  -28.924,  49.520,  -33.480,  1.00000,  0,  279.000,  0.00000,  1.00000,  0.00000,  0.00000,  1.00000,  1,  100.0,  232.500,  69.750
3087,  '1',  38.302,  -10.800,  15.970,  -10.800,  1.00000,  0,  90.000,  0.00000,  1.00000,  0.00000,  0.00000,  1.00000,  1,  100.0,  75.000,  22.500
3092,  '1',  76.604,  10.302,  42.600,  -28.800,  1.04000,  0,  240.000,  0.00000,  1.00000,  0.00000,  0.00000,  1.00000,  1,  100.0,  200.000,  60.000
3095,  '1',  46.192,  7.193,  25.690,  -17.370,  1.04000,  0,  144.720,  0.00000,  1.00000,  0.00000,  0.00000,  1.00000,  1,  100.0,  120.600,  36.180
3098,  '1',  61.283,  5.177,  34.080,  -23.040,  1.04000,  0,  192.000,  0.00000,  1.00000,  0.00000,  0.00000,  1.00000,  1,  100.0,  160.000,  48.000
3106,  '1',  0.499,  -13.139,  62.477,  -2.690,  1.00000,  0,  65.880,  0.00000,  0.29220,  0.00000,  0.00000,  1.00000,  1,  100.0,  162.800,  0.000
3110,  '1',  32.174,  4.268,  17.890,  -12.100,  1.04000,  0,  100.800,  0.00000,  1.00000,  0.00000,  0.00000,  1.00000,  1,  100.0,  84.000,  25.200
3118,  '1',  45.962,  -17.280,  25.560,  -17.280,  1.00000,  0,  144.000,  0.00000,  1.00000,  0.00000,  0.00000,  1.00000,  1,  100.0,  120.000,  36.000
3122,  '1',  75.455,  -20.094,  41.960,  -28.370,  1.00000,  0,  236.400,  0.00000,  1.00000,  0.00000,  0.00000,  1.00000,  1,  100.0,  197.000,  59.100
3127,  '1',  51.708,  -19.440,  28.760,  -19.440,  1.00000,  0,  162.000,  0.00000,  1.00000,  0.00000,  0.00000,  1.00000,  1,  100.0,  135.000,  40.500
3129,  '1',  48.454,  -18.220,  26.940,  -18.220,  1.00000,  0,  151.800,  0.00000,  1.00000,  0.00000,  0.00000,  1.00000,  1,  100.0,  126.500,  37.950
3131,  '1',  43.664,  -8.499,  24.280,  -16.420,  1.02000,  0,  136.800,  0.00000,  1.00000,  0.00000,  0.00000,  1.00000,  1,  100.0,  114.000,  34.200
3137,  '1',  38.761,  14.979,  21.560,  -14.570,  1.03000,  0,  121.440,  0.00000,  1.00000,  0.00000,  0.00000,  1.00000,  1,  100.0,  101.200,  30.360
3141,  '1',  35.044,  -13.180,  19.490,  -13.180,  1.00000,  0,  109.800,  0.00000,  1.00000,  0.00000,  0.00000,  1.00000,  1,  100.0,  91.500,  27.450
4010,  '1',  77.217,  4.452,  42.940,  -29.030,  1.03000,  0,  241.920,  0.00000,  1.00000,  0.00000,  0.00000,  1.00000,  1,  100.0,  201.600,  60.480
4026,  '1',  123.000,  6.288,  191.060,  -50.020,  1.03000,  0,  492.000,  0.00000,  0.32770,  0.00000,  0.00000,  1.00000,  1,  100.0,  410.000,  123.000
4030,  '1',  136.902,  -30.904,  290.040,  -75.930,  1.01000,  0,  746.880,  0.00000,  0.27970,  0.00000,  0.00000,  1.00000,  1,  100.0,  622.400,  186.720
4050,  '1',  76.604,  -28.800,  42.600,  -28.800,  1.00000,  0,  240.000,  0.00000,  1.00000,  0.00000,  0.00000,  1.00000,  1,  100.0,  200.000,  60.000
4058,  '1',  43.200,  5.376,  73.300,  -15.980,  1.03000,  0,  172.800,  0.00000,  0.13700,  0.00000,  0.00000,  1.00000,  1,  100.0,  144.000,  43.200
4059,  '1',  43.200,  5.647,  73.300,  -15.980,  1.03000,  0,  172.800,  0.00000,  0.15140,  0.00000,  0.00000,  1.00000,  1,  100.0,  144.000,  43.200
4060,  '1',  43.200,  3.715,  73.300,  -15.980,  1.03000,  0,  172.800,  0.00000,  0.13940,  0.00000,  0.00000,  1.00000,  1,  100.0,  144.000,  43.200
4061,  '1',  51.700,  5.351,  87.720,  -19.130,  1.03000,  0,  206.800,  0.00000,  0.21560,  0.00000,  0.00000,  1.00000,  1,  100.0,  172.330,  51.700
4062,  '1',  51.700,  3.605,  87.720,  -19.130,  1.03000,  0,  206.800,  0.00000,  0.25930,  0.00000,  0.00000,  1.00000,  1,  100.0,  172.330,  51.700
4063,  '1',  51.700,  5.917,  87.720,  -19.130,  1.03000,  0,  206.800,  0.00000,  0.14410,  0.00000,  0.00000,  1.00000,  1,  100.0,  172.330,  51.700
4082,  '1',  141.170,  14.947,  123.890,  -27.020,  1.04000,  0,  292.080,  0.00000,  0.13810,  0.00000,  0.00000,  1.00000,  1,  100.0,  243.400,  73.020
4083,  '1',  141.170,  15.761,  123.890,  -27.020,  1.04000,  0,  292.080,  0.00000,  0.15700,  0.00000,  0.00000,  1.00000,  1,  100.0,  243.400,  73.020
4084,  '1',  141.170,  27.373,  123.890,  -27.020,  1.04000,  0,  292.080,  0.00000,  0.19110,  0.00000,  0.00000,  1.00000,  1,  100.0,  243.400,  73.020
4085,  '1',  204.160,  30.849,  179.170,  -39.070,  1.04000,  0,  422.400,  0.00000,  0.31920,  0.00000,  0.00000,  1.00000,  1,  100.0,  352.000,  105.600
4105,  '1',  88.481,  -15.624,  38.340,  -25.920,  1.01000,  0,  216.000,  0.00000,  1.00000,  0.00000,  0.00000,  1.00000,  1,  100.0,  180.000,  54.000
4115,  '1',  39.540,  23.853,  67.090,  -14.630,  1.04000,  0,  158.160,  0.00000,  0.11310,  0.00000,  0.00000,  1.00000,  1,  100.0,  131.800,  39.540
4116,  '1',  39.540,  22.285,  67.090,  -14.630,  1.04000,  0,  158.160,  0.00000,  0.15150,  0.00000,  0.00000,  1.00000,  1,  100.0,  131.800,  39.540
4142,  '1',  72.008,  20.599,  40.040,  -27.070,  1.04000,  0,  225.600,  0.00000,  1.00000,  0.00000,  0.00000,  1.00000,  1,  100.0,  188.000,  56.400
4153,  '1',  108.471,  52.554,  60.320,  -40.780,  1.04000,  0,  339.840,  0.00000,  1.00000,  0.00000,  0.00000,  1.00000,  1,  100.0,  283.200,  84.960
4160,  '1',  114.710,  19.743,  100.660,  -21.950,  1.03000,  0,  237.320,  0.00000,  0.18820,  0.00000,  0.00000,  1.00000,  1,  100.0,  197.770,  59.330
4161,  '1',  114.710,  10.475,  100.660,  -21.950,  1.03000,  0,  237.320,  0.00000,  0.12390,  0.00000,  0.00000,  1.00000,  1,  100.0,  197.770,  59.330
4162,  '1',  114.710,  8.153,  100.660,  -21.950,  1.03000,  0,  237.320,  0.00000,  0.17220,  0.00000,  0.00000,  1.00000,  1,  100.0,  197.770,  59.330
4166,  '1',  76.987,  -28.940,  42.810,  -28.940,  1.00000,  0,  241.200,  0.00000,  1.00000,  0.00000,  0.00000,  1.00000,  1,  100.0,  201.000,  60.300
4177,  '1',  57.453,  1.331,  31.950,  -21.600,  1.04000,  0,  180.000,  0.00000,  1.00000,  0.00000,  0.00000,  1.00000,  1,  100.0,  150.000,  45.000
4181,  '1',  98.359,  42.620,  42.620,  -28.810,  1.04000,  0,  240.120,  0.00000,  1.00000,  0.00000,  0.00000,  1.00000,  1,  100.0,  200.100,  60.030
4183,  '1',  77.753,  43.240,  43.240,  -29.230,  1.03000,  0,  243.600,  0.00000,  1.00000,  0.00000,  0.00000,  1.00000,  1,  100.0,  203.000,  60.900
4192,  '1',  629.970,  19.524,  688.320,  -150.120,  1.02000,  0,  1622.76,  0.00000,  0.14340,  0.00000,  0.00000,  1.00000,  1,  100.0,  1352.31,  405.690
4194,  '1',  77.217,  36.649,  42.940,  -29.030,  1.02000,  0,  241.920,  0.00000,  1.00000,  0.00000,  0.00000,  1.00000,  1,  100.0,  201.600,  60.480
4195,  '1',  35.238,  -13.250,  19.600,  -13.250,  1.00000,  0,  110.400,  0.00000,  1.00000,  0.00000,  0.00000,  1.00000,  1,  100.0,  92.000,  27.600
5020,  '1',  58.988,  -17.280,  25.560,  -17.280,  1.00000,  0,  144.000,  0.00000,  1.00000,  0.00000,  0.00000,  1.00000,  1,  100.0,  120.000,  36.000
5037,  '1',  222.100,  -34.240,  157.010,  -34.240,  1.02000,  0,  370.160,  0.00000,  0.29910,  0.00000,  0.00000,  1.00000,  1,  100.0,  308.470,  92.540
5038,  '1',  222.100,  -34.240,  157.010,  -34.240,  1.02000,  0,  370.160,  0.00000,  0.12330,  0.00000,  0.00000,  1.00000,  1,  100.0,  308.470,  92.540
5039,  '1',  222.100,  -34.240,  157.010,  -34.240,  1.02000,  0,  370.160,  0.00000,  0.21470,  0.00000,  0.00000,  1.00000,  1,  100.0,  308.470,  92.540
5040,  '1',  222.100,  -34.240,  157.010,  -34.240,  1.02000,  0,  370.160,  0.00000,  0.19240,  0.00000,  0.00000,  1.00000,  1,  100.0,  308.470,  92.540
5041,  '1',  222.100,  -34.240,  157.010,  -34.240,  1.02000,  0,  370.160,  0.00000,  0.11590,  0.00000,  0.00000,  1.00000,  1,  100.0,  308.470,  92.540
5042,  '1',  222.100,  -34.240,  157.010,  -34.240,  1.02000,  0,  370.160,  0.00000,  0.19130,  0.00000,  0.00000,  1.00000,  1,  100.0,  308.470,  92.540
5057,  '1',  228.450,  -35.230,  161.530,  -35.230,  1.00000,  0,  380.820,  0.00000,  0.19130,  0.00000,  0.00000,  1.00000,  1,  100.0,  317.350,  95.200
5058,  '1',  228.490,  -35.230,  161.530,  -35.230,  1.00000,  0,  380.820,  0.00000,  0.29820,  0.00000,  0.00000,  1.00000,  1,  100.0,  317.350,  95.200
5067,  '1',  315.550,  -1.023,  223.080,  -48.650,  1.03000,  0,  525.920,  0.00000,  0.32610,  0.00000,  0.00000,  1.00000,  1,  100.0,  438.270,  131.480
5068,  '1',  315.550,  -2.155,  223.080,  -48.650,  1.03000,  0,  525.920,  0.00000,  0.11690,  0.00000,  0.00000,  1.00000,  1,  100.0,  438.270,  131.480
5069,  '1',  315.550,  -2.416,  223.080,  -48.650,  1.03000,  0,  525.920,  0.00000,  0.10560,  0.00000,  0.00000,  1.00000,  1,  100.0,  438.270,  131.480
5166,  '1',  37.950,  28.478,  64.390,  -14.040,  1.04000,  0,  151.800,  0.00000,  0.13910,  0.00000,  0.00000,  1.00000,  1,  100.0,  126.500,  37.950
5198,  '1',  73.735,  -21.600,  31.950,  -21.600,  1.00000,  0,  180.000,  0.00000,  1.00000,  0.00000,  0.00000,  1.00000,  1,  100.0,  150.000,  45.000
5206,  '1',  144.230,  -27.600,  126.570,  -27.600,  1.01000,  0,  298.400,  0.00000,  0.11980,  0.00000,  0.00000,  1.00000,  1,  100.0,  248.670,  74.600
5207,  '1',  144.230,  -27.600,  126.570,  -27.600,  1.01000,  0,  298.400,  0.00000,  0.18090,  0.00000,  0.00000,  1.00000,  1,  100.0,  248.670,  74.600
5208,  '1',  144.230,  -27.600,  126.570,  -27.600,  1.01000,  0,  298.400,  0.00000,  0.10560,  0.00000,  0.00000,  1.00000,  1,  100.0,  248.670,  74.600
5238,  '1',  110.602,  -32.400,  47.930,  -32.400,  1.00000,  0,  270.000,  0.00000,  1.00000,  0.00000,  0.00000,  1.00000,  1,  100.0,  225.000,  67.500
5243,  '1',  73.735,  -21.600,  31.950,  -21.600,  1.00000,  0,  180.000,  0.00000,  1.00000,  0.00000,  0.00000,  1.00000,  1,  100.0,  150.000,  45.000
5262,  '1',  1215.000,  -99.630,  447.120,  -99.630,  1.01000,  0,  1458.00,  0.00000,  0.26310,  0.00000,  0.00000,  1.00000,  1,  100.0,  1215.00,  364.500
5263,  '1',  1215.000,  -99.630,  447.120,  -99.630,  1.01000,  0,  1458.00,  0.00000,  0.16260,  0.00000,  0.00000,  1.00000,  1,  100.0,  1215.00,  364.500
5281,  '1',  80.320,  -29.720,  136.280,  -29.720,  1.00000,  0,  321.280,  0.00000,  0.10660,  0.00000,  0.00000,  1.00000,  1,  100.0,  267.730,  80.320
5282,  '1',  80.320,  -29.720,  136.280,  -29.720,  1.00000,  0,  321.280,  0.00000,  0.23940,  0.00000,  0.00000,  1.00000,  1,  100.0,  267.730,  80.320
5283,  '1',  80.320,  -29.720,  136.280,  -29.720,  1.00000,  0,  321.280,  0.00000,  0.10650,  0.00000,  0.00000,  1.00000,  1,  100.0,  267.730,  80.320
5298,  '1',  34.500,  58.530,  58.530,  -12.760,  1.04000,  0,  138.000,  0.00000,  0.13260,  0.00000,  0.00000,  1.00000,  1,  100.0,  115.000,  34.500
5299,  '1',  34.500,  31.886,  58.530,  -12.760,  1.04000,  0,  138.000,  0.00000,  0.32280,  0.00000,  0.00000,  1.00000,  1,  100.0,  115.000,  34.500
5300,  '1',  34.500,  38.471,  58.530,  -12.760,  1.04000,  0,  138.000,  0.00000,  0.21910,  0.00000,  0.00000,  1.00000,  1,  100.0,  115.000,  34.500
5302,  '1',  139.130,  39.917,  236.050,  -51.480,  1.04000,  0,  556.500,  0.00000,  0.13300,  0.00000,  0.00000,  1.00000,  1,  100.0,  463.750,  139.130
5303,  '1',  139.130,  53.944,  236.050,  -51.480,  1.04000,  0,  556.500,  0.00000,  0.17920,  0.00000,  0.00000,  1.00000,  1,  100.0,  463.750,  139.130
5319,  '1',  78.840,  -29.170,  133.770,  -29.170,  1.01000,  0,  315.360,  0.00000,  0.25070,  0.00000,  0.00000,  1.00000,  1,  100.0,  262.800,  78.840
5320,  '1',  78.840,  -29.170,  133.770,  -29.170,  1.01000,  0,  315.360,  0.00000,  0.28140,  0.00000,  0.00000,  1.00000,  1,  100.0,  262.800,  78.840
5321,  '1',  78.840,  -29.170,  133.770,  -29.170,  1.01000,  0,  315.360,  0.00000,  0.12810,  0.00000,  0.00000,  1.00000,  1,  100.0,  262.800,  78.840
5324,  '1',  204.530,  42.990,  144.590,  -31.530,  1.04000,  0,  340.880,  0.00000,  0.21670,  0.00000,  0.00000,  1.00000,  1,  100.0,  284.070,  85.220
5325,  '1',  204.530,  44.470,  144.590,  -31.530,  1.04000,  0,  340.880,  0.00000,  0.15030,  0.00000,  0.00000,  1.00000,  1,  100.0,  284.070,  85.220
5326,  '1',  204.530,  121.379,  144.590,  -31.530,  1.04000,  0,  340.880,  0.00000,  0.18810,  0.00000,  0.00000,  1.00000,  1,  100.0,  284.070,  85.220
5360,  '1',  313.094,  -131.487,  469.730,  -122.980,  1.01000,  0,  1209.60,  0.00000,  0.25510,  0.00000,  0.00000,  1.00000,  1,  100.0,  1008.00,  302.400
5364,  '1',  123.730,  -23.680,  108.590,  -23.680,  1.00000,  0,  256.000,  0.00000,  0.13030,  0.00000,  0.00000,  1.00000,  1,  100.0,  213.330,  64.000
5365,  '1',  123.730,  -23.680,  108.590,  -23.680,  1.00000,  0,  256.000,  0.00000,  0.11650,  0.00000,  0.00000,  1.00000,  1,  100.0,  213.330,  64.000
5366,  '1',  123.730,  -23.680,  108.590,  -23.680,  1.00000,  0,  256.000,  0.00000,  0.15490,  0.00000,  0.00000,  1.00000,  1,  100.0,  213.330,  64.000
5367,  '1',  123.730,  -23.680,  108.590,  -23.680,  1.00000,  0,  256.000,  0.00000,  0.10020,  0.00000,  0.00000,  1.00000,  1,  100.0,  213.330,  64.000
5368,  '1',  123.730,  -23.680,  108.590,  -23.680,  1.00000,  0,  256.000,  0.00000,  0.36180,  0.00000,  0.00000,  1.00000,  1,  100.0,  213.330,  64.000
5369,  '1',  123.730,  -23.680,  108.590,  -23.680,  1.00000,  0,  256.000,  0.00000,  0.24440,  0.00000,  0.00000,  1.00000,  1,  100.0,  213.330,  64.000
5382,  '1',  150.480,  73.865,  106.380,  -23.200,  1.04000,  0,  250.800,  0.00000,  0.24770,  0.00000,  0.00000,  1.00000,  1,  100.0,  209.000,  62.700
5383,  '1',  150.480,  65.048,  106.380,  -23.200,  1.04000,  0,  250.800,  0.00000,  0.39820,  0.00000,  0.00000,  1.00000,  1,  100.0,  209.000,  62.700
5399,  '1',  81.403,  10.432,  35.270,  -23.850,  1.04000,  0,  198.720,  0.00000,  1.00000,  0.00000,  0.00000,  1.00000,  1,  100.0,  165.600,  49.680
5415,  '1',  36.600,  -13.540,  62.100,  -13.540,  1.00000,  0,  146.400,  0.00000,  0.14030,  0.00000,  0.00000,  1.00000,  1,  100.0,  122.000,  36.600
5416,  '1',  36.600,  -13.540,  62.100,  -13.540,  1.00000,  0,  146.400,  0.00000,  0.26480,  0.00000,  0.00000,  1.00000,  1,  100.0,  122.000,  36.600
5417,  '1',  36.600,  -13.540,  62.100,  -13.540,  1.00000,  0,  146.400,  0.00000,  0.16960,  0.00000,  0.00000,  1.00000,  1,  100.0,  122.000,  36.600
5418,  '1',  35.640,  -13.190,  60.470,  -13.190,  1.00000,  0,  142.560,  0.00000,  0.34000,  0.00000,  0.00000,  1.00000,  1,  100.0,  118.800,  35.640
5419,  '1',  35.640,  -13.190,  60.470,  -13.190,  1.00000,  0,  142.560,  0.00000,  0.16420,  0.00000,  0.00000,  1.00000,  1,  100.0,  118.800,  35.640
5444,  '1',  604.980,  -223.840,  1026.440,  -223.840,  1.01000,  0,  2419.92,  0.00000,  0.34260,  0.00000,  0.00000,  1.00000,  1,  100.0,  2016.60,  604.980
6006,  '1',  123.540,  9.669,  108.420,  -23.640,  1.04000,  0,  255.600,  0.00000,  0.18770,  0.00000,  0.00000,  1.00000,  1,  100.0,  213.000,  63.900
6007,  '1',  306.720,  16.217,  216.830,  -47.290,  1.04000,  0,  511.200,  0.00000,  0.13420,  0.00000,  0.00000,  1.00000,  1,  100.0,  426.000,  127.800
6008,  '1',  89.329,  8.967,  100.950,  -22.010,  1.04000,  0,  238.000,  0.00000,  0.20160,  0.00000,  0.00000,  1.00000,  1,  100.0,  198.330,  59.500
6009,  '1',  115.030,  5.651,  100.950,  -22.010,  1.04000,  0,  238.000,  0.00000,  0.18430,  0.00000,  0.00000,  1.00000,  1,  100.0,  198.330,  59.500
6010,  '1',  115.030,  6.952,  100.950,  -22.010,  1.04000,  0,  238.000,  0.00000,  0.15620,  0.00000,  0.00000,  1.00000,  1,  100.0,  198.330,  59.500
6069,  '1',  54.410,  -12.554,  92.320,  -20.130,  1.03000,  0,  217.640,  0.00000,  0.22480,  0.00000,  0.00000,  1.00000,  1,  100.0,  181.370,  54.410
6070,  '1',  54.410,  -5.228,  92.320,  -20.130,  1.03000,  0,  217.640,  0.00000,  0.24660,  0.00000,  0.00000,  1.00000,  1,  100.0,  181.370,  54.410
6071,  '1',  54.410,  -15.338,  92.320,  -20.130,  1.03000,  0,  217.640,  0.00000,  0.15280,  0.00000,  0.00000,  1.00000,  1,  100.0,  181.370,  54.410
6072,  '1',  54.410,  -6.121,  92.320,  -20.130,  1.03000,  0,  217.640,  0.00000,  0.19250,  0.00000,  0.00000,  1.00000,  1,  100.0,  181.370,  54.410
6073,  '1',  54.410,  -9.443,  92.320,  -20.130,  1.03000,  0,  217.640,  0.00000,  0.14260,  0.00000,  0.00000,  1.00000,  1,  100.0,  181.370,  54.410
6074,  '1',  54.410,  -9.867,  92.320,  -20.130,  1.03000,  0,  217.640,  0.00000,  0.11150,  0.00000,  0.00000,  1.00000,  1,  100.0,  181.370,  54.410
6078,  '1',  169.000,  -68.730,  262.510,  -68.730,  1.00000,  0,  676.000,  0.00000,  0.28900,  0.00000,  0.00000,  1.00000,  1,  100.0,  563.330,  169.000
6079,  '1',  169.000,  -68.730,  262.510,  -68.730,  1.00000,  0,  676.000,  0.00000,  0.25330,  0.00000,  0.00000,  1.00000,  1,  100.0,  563.330,  169.000
6080,  '1',  169.000,  -68.730,  262.510,  -68.730,  1.00000,  0,  676.000,  0.00000,  0.32510,  0.00000,  0.00000,  1.00000,  1,  100.0,  563.330,  169.000
6106,  '1',  36.300,  61.590,  61.590,  -13.430,  1.04000,  0,  145.200,  0.00000,  0.12010,  0.00000,  0.00000,  1.00000,  1,  100.0,  121.000,  36.300
6110,  '1',  177.180,  21.156,  275.220,  -72.050,  1.04000,  0,  708.720,  0.00000,  0.16800,  0.00000,  0.00000,  1.00000,  1,  100.0,  590.600,  177.180
6111,  '1',  198.450,  21.607,  308.260,  -80.700,  1.04000,  0,  793.800,  0.00000,  0.21900,  0.00000,  0.00000,  1.00000,  1,  100.0,  661.500,  198.450
6145,  '1',  321.120,  -4.715,  227.010,  -49.510,  1.03000,  0,  535.200,  0.00000,  0.14770,  0.00000,  0.00000,  1.00000,  1,  100.0,  446.000,  133.800
6146,  '1',  321.120,  -4.989,  227.010,  -49.510,  1.03000,  0,  535.200,  0.00000,  0.11950,  0.00000,  0.00000,  1.00000,  1,  100.0,  446.000,  133.800
6147,  '1',  251.206,  -9.163,  474.390,  -103.450,  1.03000,  0,  1118.40,  0.00000,  0.10440,  0.00000,  0.00000,  1.00000,  1,  100.0,  932.000,  279.600
6148,  '1',  216.600,  -17.791,  367.500,  -80.140,  1.03000,  0,  866.400,  0.00000,  0.23830,  0.00000,  0.00000,  1.00000,  1,  100.0,  722.000,  216.600
6149,  '1',  216.600,  -33.038,  367.500,  -80.140,  1.03000,  0,  866.400,  0.00000,  0.12770,  0.00000,  0.00000,  1.00000,  1,  100.0,  722.000,  216.600
6164,  '1',  136.330,  -4.109,  119.640,  -26.090,  1.03000,  0,  282.060,  0.00000,  0.30070,  0.00000,  0.00000,  1.00000,  1,  100.0,  235.050,  70.520
6165,  '1',  136.330,  -4.260,  119.640,  -26.090,  1.03000,  0,  282.060,  0.00000,  0.18390,  0.00000,  0.00000,  1.00000,  1,  100.0,  235.050,  70.520
6166,  '1',  136.330,  -9.228,  119.640,  -26.090,  1.03000,  0,  282.060,  0.00000,  0.25100,  0.00000,  0.00000,  1.00000,  1,  100.0,  235.050,  70.520
6167,  '1',  136.330,  -4.886,  119.640,  -26.090,  1.03000,  0,  282.060,  0.00000,  0.13970,  0.00000,  0.00000,  1.00000,  1,  100.0,  235.050,  70.520
6243,  '1',  106.140,  21.828,  93.150,  -20.310,  1.04000,  0,  219.600,  0.00000,  0.28800,  0.00000,  0.00000,  1.00000,  1,  100.0,  183.000,  54.900
6244,  '1',  214.560,  26.494,  151.680,  -33.080,  1.04000,  0,  357.600,  0.00000,  0.12500,  0.00000,  0.00000,  1.00000,  1,  100.0,  298.000,  89.400
6245,  '1',  214.560,  30.640,  151.680,  -33.080,  1.04000,  0,  357.600,  0.00000,  0.24960,  0.00000,  0.00000,  1.00000,  1,  100.0,  298.000,  89.400
6246,  '1',  214.560,  58.403,  151.680,  -33.080,  1.04000,  0,  357.600,  0.00000,  0.16990,  0.00000,  0.00000,  1.00000,  1,  100.0,  298.000,  89.400
6247,  '1',  106.330,  48.108,  93.320,  -20.350,  1.04000,  0,  220.000,  0.00000,  0.11730,  0.00000,  0.00000,  1.00000,  1,  100.0,  183.330,  55.000
6248,  '1',  106.330,  24.295,  93.320,  -20.350,  1.04000,  0,  220.000,  0.00000,  0.27550,  0.00000,  0.00000,  1.00000,  1,  100.0,  183.330,  55.000
6249,  '1',  106.330,  16.302,  93.320,  -20.350,  1.04000,  0,  220.000,  0.00000,  0.17480,  0.00000,  0.00000,  1.00000,  1,  100.0,  183.330,  55.000
6257,  '1',  58.200,  -21.530,  98.750,  -21.530,  1.02000,  0,  232.800,  0.00000,  0.15520,  0.00000,  0.00000,  1.00000,  1,  100.0,  194.000,  58.200
6258,  '1',  58.200,  -21.530,  98.750,  -21.530,  1.02000,  0,  232.800,  0.00000,  0.26310,  0.00000,  0.00000,  1.00000,  1,  100.0,  194.000,  58.200
6260,  '1',  149.060,  -28.530,  130.810,  -28.530,  1.02000,  0,  308.400,  0.00000,  0.11970,  0.00000,  0.00000,  1.00000,  1,  100.0,  257.000,  77.100
6295,  '1',  119.610,  -22.890,  104.970,  -22.890,  1.02000,  0,  247.480,  0.00000,  0.21970,  0.00000,  0.00000,  1.00000,  1,  100.0,  206.230,  61.870
...
 0 /End of Generator data, Begin Branch data
1004,  1023,  '99',  0.01125,  0.34546,  0.00000,  0.00,  0.00,  0.00,  0.00000,  0.000,  0.00000,  0.00000,  0.00000,  0.00000,  1
1004,  1057,  '99',  0.63265,  4.12044,  0.00000,  0.00,  0.00,  0.00,  0.00000,  0.000,  0.00000,  0.00000,  0.00000,  0.00000,  1
1004,  2019,  '99',  0.12460,  1.18280,  0.00000,  0.00,  0.00,  0.00,  0.00000,  0.000,  0.00000,  0.00000,  0.00000,  0.00000,  1
1004,  2062,  '99',  0.91134,  4.41484,  0.00000,  0.00,  0.00,  0.00,  0.00000,  0.000,  0.00000,  0.00000,  0.00000,  0.00000,  1
1004,  2100,  '99',  0.05241,  0.64272,  0.00000,  0.00,  0.00,  0.00,  0.00000,  0.000,  0.00000,  0.00000,  0.00000,  0.00000,  1
1004,  2127,  '99',  0.18001,  1.02451,  0.00000,  0.00,  0.00,  0.00,  0.00000,  0.000,  0.00000,  0.00000,  0.00000,  0.00000,  1
1004,  3034,  '99',  0.36456,  2.72627,  0.00000,  0.00,  0.00,  0.00,  0.00000,  0.000,  0.00000,  0.00000,  0.00000,  0.00000,  1
1004,  3039,  '99',  0.03268,  0.33538,  0.00000,  0.00,  0.00,  0.00,  0.00000,  0.000,  0.00000,  0.00000,  0.00000,  0.00000,  1
1004,  3048,  '99',  0.04521,  0.33465,  0.00000,  0.00,  0.00,  0.00,  0.00000,  0.000,  0.00000,  0.00000,  0.00000,  0.00000,  1
1004,  3081,  '99',  0.04014,  0.42610,  0.00000,  0.00,  0.00,  0.00,  0.00000,  0.000,  0.00000,  0.00000,  0.00000,  0.00000,  1
1004,  3087,  '99',  0.40319,  3.13814,  0.00000,  0.00,  0.00,  0.00,  0.00000,  0.000,  0.00000,  0.00000,  0.00000,  0.00000,  1
1004,  3098,  '99',  0.03024,  0.47003,  0.00000,  0.00,  0.00,  0.00,  0.00000,  0.000,  0.00000,  0.00000,  0.00000,  0.00000,  1
1004,  3110,  '99',  0.06264,  0.51361,  0.00000,  0.00,  0.00,  0.00,  0.00000,  0.000,  0.00000,  0.00000,  0.00000,  0.00000,  1
1004,  3118,  '99',  0.21459,  2.05749,  0.00000,  0.00,  0.00,  0.00,  0.00000,  0.000,  0.00000,  0.00000,  0.00000,  0.00000,  1
1004,  3127,  '99',  1.12879,  4.68907,  0.00000,  0.00,  0.00,  0.00,  0.00000,  0.000,  0.00000,  0.00000,  0.00000,  0.00000,  1
1004,  3129,  '99',  1.17995,  3.78716,  0.00000,  0.00,  0.00,  0.00,  0.00000,  0.000,  0.00000,  0.00000,  0.00000,  0.00000,  1
1009,  1033,  '99',  0.07288,  0.64940,  0.00000,  0.00,  0.00,  0.00,  0.00000,  0.000,  0.00000,  0.00000,  0.00000,  0.00000,  1
1009,  1039,  '99',  1.26450,  4.30729,  0.00000,  0.00,  0.00,  0.00,  0.00000,  0.000,  0.00000,  0.00000,  0.00000,  0.00000,  1
1009,  1070,  '99',  -0.00712,  0.39957,  0.00000,  0.00,  0.00,  0.00,  0.00000,  0.000,  0.00000,  0.00000,  0.00000,  0.00000,  1
1009,  1082,  '99',  0.09930,  0.45292,  0.00000,  0.00,  0.00,  0.00,  0.00000,  0.000,  0.00000,  0.00000,  0.00000,  0.00000,  1
1021,  1026,  '99',  0.01959,  0.79514,  0.00000,  0.00,  0.00,  0.00,  0.00000,  0.000,  0.00000,  0.00000,  0.00000,  0.00000,  1
1021,  1035,  '99',  0.61797,  3.71036,  0.00000,  0.00,  0.00,  0.00,  0.00000,  0.000,  0.00000,  0.00000,  0.00000,  0.00000,  1
1021,  1042,  '99',  0.55460,  3.85348,  0.00000,  0.00,  0.00,  0.00,  0.00000,  0.000,  0.00000,  0.00000,  0.00000,  0.00000,  1
1021,  1084,  '99',  0.01303,  0.19017,  0.00000,  0.00,  0.00,  0.00,  0.00000,  0.000,  0.00000,  0.00000,  0.00000,  0.00000,  1
1021,  3048,  '99',  0.37744,  3.29957,  0.00000,  0.00,  0.00,  0.00,  0.00000,  0.000,  0.00000,  0.00000,  0.00000,  0.00000,  1
1021,  3062,  '99',  -0.08193,  4.40104,  0.00000,  0.00,  0.00,  0.00,  0.00000,  0.000,  0.00000,  0.00000,  0.00000,  0.00000,  1
1021,  3141,  '99',  1.08892,  3.94426,  0.00000,  0.00,  0.00,  0.00,  0.00000,  0.000,  0.00000,  0.00000,  0.00000,  0.00000,  1
1023,  2100,  '99',  0.09568,  4.32425,  0.00000,  0.00,  0.00,  0.00,  0.00000,  0.000,  0.00000,  0.00000,  0.00000,  0.00000,  1
1023,  3098,  '99',  0.01773,  3.10224,  0.00000,  0.00,  0.00,  0.00,  0.00000,  0.000,  0.00000,  0.00000,  0.00000,  0.00000,  1
1023,  3110,  '99',  0.08556,  0.92642,  0.00000,  0.00,  0.00,  0.00,  0.00000,  0.000,  0.00000,  0.00000,  0.00000,  0.00000,  1
1026,  1035,  '99',  0.41284,  2.70379,  0.00000,  0.00,  0.00,  0.00,  0.00000,  0.000,  0.00000,  0.00000,  0.00000,  0.00000,  1
1026,  1042,  '99',  0.36617,  2.81289,  0.00000,  0.00,  0.00,  0.00,  0.00000,  0.000,  0.00000,  0.00000,  0.00000,  0.00000,  1
1026,  1057,  '99',  0.13129,  4.84730,  0.00000,  0.00,  0.00,  0.00,  0.00000,  0.000,  0.00000,  0.00000,  0.00000,  0.00000,  1
1026,  1066,  '99',  0.53509,  3.75843,  0.00000,  0.00,  0.00,  0.00,  0.00000,  0.000,  0.00000,  0.00000,  0.00000,  0.00000,  1
1026,  1084,  '99',  0.07392,  0.47191,  0.00000,  0.00,  0.00,  0.00,  0.00000,  0.000,  0.00000,  0.00000,  0.00000,  0.00000,  1
1033,  1035,  '99',  -0.14678,  2.67697,  0.00000,  0.00,  0.00,  0.00,  0.00000,  0.000,  0.00000,  0.00000,  0.00000,  0.00000,  1
1033,  1039,  '99',  0.06772,  0.83030,  0.00000,  0.00,  0.00,  0.00,  0.00000,  0.000,  0.00000,  0.00000,  0.00000,  0.00000,  1
1033,  1070,  '99',  0.11182,  0.81997,  0.00000,  0.00,  0.00,  0.00,  0.00000,  0.000,  0.00000,  0.00000,  0.00000,  0.00000,  1
1033,  1081,  '99',  0.00300,  0.03092,  0.00000,  0.00,  0.00,  0.00,  0.00000,  0.000,  0.00000,  0.00000,  0.00000,  0.00000,  1
1033,  1082,  '99',  0.09861,  0.33131,  0.00000,  0.00,  0.00,  0.00,  0.00000,  0.000,  0.00000,  0.00000,  0.00000,  0.00000,  1
1033,  3020,  '99',  0.03735,  0.84444,  0.00000,  0.00,  0.00,  0.00,  0.00000,  0.000,  0.00000,  0.00000,  0.00000,  0.00000,  1
1033,  4115,  '99',  0.16387,  3.78559,  0.00000,  0.00,  0.00,  0.00,  0.00000,  0.000,  0.00000,  0.00000,  0.00000,  0.00000,  1
1033,  4116,  '99',  0.21146,  3.98144,  0.00000,  0.00,  0.00,  0.00,  0.00000,  0.000,  0.00000,  0.00000,  0.00000,  0.00000,  1
1033,  4195,  '99',  0.30687,  2.71646,  0.00000,  0.00,  0.00,  0.00,  0.00000,  0.000,  0.00000,  0.00000,  0.00000,  0.00000,  1
1035,  1042,  '99',  0.00839,  0.62891,  0.00000,  0.00,  0.00,  0.00,  0.00000,  0.000,  0.00000,  0.00000,  0.00000,  0.00000,  1
1035,  1057,  '99',  0.09966,  2.12088,  0.00000,  0.00,  0.00,  0.00,  0.00000,  0.000,  0.00000,  0.00000,  0.00000,  0.00000,  1
1035,  1066,  '99',  0.03307,  0.88685,  0.00000,  0.00,  0.00,  0.00,  0.00000,  0.000,  0.00000,  0.00000,  0.00000,  0.00000,  1
1035,  1084,  '99',  0.62543,  2.02338,  0.00000,  0.00,  0.00,  0.00,  0.00000,  0.000,  0.00000,  0.00000,  0.00000,  0.00000,  1
1039,  1048,  '99',  0.07649,  3.11076,  0.00000,  0.00,  0.00,  0.00,  0.00000,  0.000,  0.00000,  0.00000,  0.00000,  0.00000,  1
1039,  1053,  '99',  -0.00087,  4.16388,  0.00000,  0.00,  0.00,  0.00,  0.00000,  0.000,  0.00000,  0.00000,  0.00000,  0.00000,  1
1039,  1082,  '99',  0.01282,  0.17119,  0.00000,  0.00,  0.00,  0.00,  0.00000,  0.000,  0.00000,  0.00000,  0.00000,  0.00000,  1
1042,  1057,  '99',  -0.00657,  1.61845,  0.00000,  0.00,  0.00,  0.00,  0.00000,  0.000,  0.00000,  0.00000,  0.00000,  0.00000,  1
1042,  1066,  '99',  -0.01347,  0.55817,  0.00000,  0.00,  0.00,  0.00,  0.00000,  0.000,  0.00000,  0.00000,  0.00000,  0.00000,  1
1042,  1084,  '99',  0.58491,  2.05959,  0.00000,  0.00,  0.00,  0.00,  0.00000,  0.000,  0.00000,  0.00000,  0.00000,  0.00000,  1
1048,  1049,  '99',  0.00169,  0.34072,  0.00000,  0.00,  0.00,  0.00,  0.00000,  0.000,  0.00000,  0.00000,  0.00000,  0.00000,  1
1048,  1053,  '99',  0.00195,  0.25471,  0.00000,  0.00,  0.00,  0.00,  0.00000,  0.000,  0.00000,  0.00000,  0.00000,  0.00000,  1
1048,  1076,  '99',  0.43384,  2.86990,  0.00000,  0.00,  0.00,  0.00,  0.00000,  0.000,  0.00000,  0.00000,  0.00000,  0.00000,  1
1048,  1081,  '99',  0.57115,  3.85177,  0.00000,  0.00,  0.00,  0.00,  0.00000,  0.000,  0.00000,  0.00000,  0.00000,  0.00000,  1
1048,  1082,  '99',  0.41320,  1.76468,  0.00000,  0.00,  0.00,  0.00,  0.00000,  0.000,  0.00000,  0.00000,  0.00000,  0.00000,  1
1048,  3048,  '99',  0.42159,  3.04012,  0.00000,  0.00,  0.00,  0.00,  0.00000,  0.000,  0.00000,  0.00000,  0.00000,  0.00000,  1
1049,  1053,  '99',  -0.00904,  0.45584,  0.00000,  0.00,  0.00,  0.00,  0.00000,  0.000,  0.00000,  0.00000,  0.00000,  0.00000,  1
1049,  1082,  '99',  0.65256,  3.17789,  0.00000,  0.00,  0.00,  0.00,  0.00000,  0.000,  0.00000,  0.00000,  0.00000,  0.00000,  1
1053,  1076,  '99',  0.48516,  3.85354,  0.00000,  0.00,  0.00,  0.00,  0.00000,  0.000,  0.00000,  0.00000,  0.00000,  0.00000,  1
1053,  1081,  '99',  0.00299,  0.02983,  0.00000,  0.00,  0.00,  0.00,  0.00000,  0.000,  0.00000,  0.00000,  0.00000,  0.00000,  1
1053,  1082,  '99',  0.49421,  2.37437,  0.00000,  0.00,  0.00,  0.00,  0.00000,  0.000,  0.00000,  0.00000,  0.00000,  0.00000,  1
1053,  3048,  '99',  0.46312,  4.08083,  0.00000,  0.00,  0.00,  0.00,  0.00000,  0.000,  0.00000,  0.00000,  0.00000,  0.00000,  1
1057,  1066,  '99',  -0.02291,  1.41939,  0.00000,  0.00,  0.00,  0.00,  0.00000,  0.000,  0.00000,  0.00000,  0.00000,  0.00000,  1
1057,  1076,  '99',  0.20009,  3.11839,  0.00000,  0.00,  0.00,  0.00,  0.00000,  0.000,  0.00000,  0.00000,  0.00000,  0.00000,  1
1057,  1081,  '99',  0.25133,  3.96902,  0.00000,  0.00,  0.00,  0.00,  0.00000,  0.000,  0.00000,  0.00000,  0.00000,  0.00000,  1
1057,  1084,  '99',  0.47056,  2.41628,  0.00000,  0.00,  0.00,  0.00,  0.00000,  0.000,  0.00000,  0.00000,  0.00000,  0.00000,  1
1057,  3048,  '99',  0.14702,  2.64586,  0.00000,  0.00,  0.00,  0.00,  0.00000,  0.000,  0.00000,  0.00000,  0.00000,  0.00000,  1
1066,  1084,  '99',  0.77293,  2.61414,  0.00000,  0.00,  0.00,  0.00,  0.00000,  0.000,  0.00000,  0.00000,  0.00000,  0.00000,  1
1070,  1082,  '99',  0.03583,  0.23751,  0.00000,  0.00,  0.00,  0.00,  0.00000,  0.000,  0.00000,  0.00000,  0.00000,  0.00000,  1
1070,  3020,  '99',  -0.01922,  4.02426,  0.00000,  0.00,  0.00,  0.00,  0.00000,  0.000,  0.00000,  0.00000,  0.00000,  0.00000,  1
...